Version 4
SHEET 1 880 680
WIRE 160 -80 -304 -80
WIRE 272 -80 160 -80
WIRE 160 -16 160 -80
WIRE 160 80 160 64
WIRE 272 80 160 80
WIRE 160 96 160 80
WIRE 160 192 160 176
WIRE 272 192 160 192
WIRE -304 208 -304 -80
WIRE 160 208 160 192
WIRE 160 304 160 288
WIRE 272 304 160 304
WIRE 160 320 160 304
WIRE 160 416 160 400
WIRE 272 416 160 416
WIRE 160 432 160 416
WIRE -304 512 -304 288
WIRE -272 512 -304 512
WIRE 160 512 -272 512
WIRE -272 528 -272 512
FLAG -272 528 0
FLAG 272 -80 N250mV
IOPIN 272 -80 Out
FLAG 272 80 N5.0V
IOPIN 272 80 Out
FLAG 272 192 N50V
IOPIN 272 192 Out
FLAG 272 304 N250V
IOPIN 272 304 Out
FLAG 272 416 N1000V
IOPIN 272 416 Out
SYMBOL res 144 -32 R0
SYMATTR InstName R1
SYMATTR Value 19Megohm
SYMBOL res 144 80 R0
SYMATTR InstName R2
SYMATTR Value 900kohm
SYMBOL res 144 192 R0
SYMATTR InstName R3
SYMATTR Value 80kohm
SYMBOL res 144 304 R0
SYMATTR InstName R4
SYMATTR Value 15kohm
SYMBOL res 144 416 R0
SYMATTR InstName R5
SYMATTR Value 5kohm
SYMBOL voltage -304 192 R0
WINDOW 123 0 0 Left 0
WINDOW 39 0 0 Left 0
SYMATTR InstName V1
SYMATTR Value 1000V
TEXT -104 552 Left 2 !.op
TEXT -144 608 Left 2 ;Seth Ricks
