Version 4
SHEET 1 880 680
WIRE 224 96 48 96
WIRE 272 96 224 96
WIRE 48 128 48 96
WIRE 272 144 272 96
WIRE 48 256 48 208
WIRE 272 256 272 208
WIRE 272 256 48 256
WIRE 272 272 272 256
FLAG 272 272 0
FLAG 224 96 Vd
SYMBOL diode 256 144 R0
SYMATTR InstName D1
SYMATTR Value 1N4007
SYMBOL current 48 208 R180
WINDOW 0 24 80 Left 2
WINDOW 3 24 0 Left 2
WINDOW 123 0 0 Left 0
WINDOW 39 0 0 Left 0
SYMATTR InstName I1
SYMATTR Value 1mA
TEXT 56 336 Left 2 !.step temp -55 125 10
TEXT 32 56 Left 2 ;Seth Ricks
TEXT -368 392 Left 2 !.model 1N4007 D(IS=2.52n RS=0.568 N=1.73 BV=1000 IBV=0.1u CJO=35p M=0.333 TT=2.23u)
TEXT 96 440 Left 2 !.op
